* File: Mod5.pex.netlist.pex
* Created: Thu Sep 16 20:09:16 2021
* Program "Calibre xRC"
* Version "v2020.4_34.17"
* Nominal Temperature: 25C
* Circuit Temperature: 25C
* 
.subckt PM_MOD5_QC 21 23 26 29 32 35 38 39 41 44 45 47 50 51 53 54 55 56 57 58
+ 63 64 66 67 68 69 70 76 77 78 79 81 82 83 84 85 86 90 93 95 96 97 98 100 101
+ 102 107 108 113 116 121 122 128 131 132 133 136 138 139 140 141 142 143 145
+ 146 149 154 156 157 158 161 168 169 170 171 175 178 179 180 181 200 202 203
+ 204 205 206 207 208 209 210 211 214 216 217 220 221 227 229 231 238 239 240
+ 241 242 243 244 251 252 255 257 258 259 260 262 265 266 269 270 274 275 277
+ 278 281 283 284 297 299 302 305 307 312 315 335 336 340 345 346 347 351 352
+ 360 364 368 369 373 380 385 391 392 393 399 400 401 404
c1130 404 0 0.0018166f
c1131 401 0 3.26132e-19
c1132 400 0 0.00775859f
c1133 393 0 0.00129826f
c1134 392 0 0.00834444f
c1135 391 0 0.00168351f
c1136 385 0 0.0134633f
c1137 380 0 0.0135486f
c1138 373 0 0.00506136f
c1139 369 0 2.23212e-19
c1140 368 0 6.54438e-19
c1141 364 0 9.50974e-19
c1142 360 0 0.00381993f
c1143 347 0 5.51088e-19
c1144 346 0 0.0012977f
c1145 345 0 0.00295663f
c1146 340 0 0.00697291f
c1147 336 0 0.00418151f
c1148 335 0 0.00498968f
c1149 315 0 0.015436f
c1150 312 0 0.0154527f
c1151 307 0 0.0151904f
c1152 299 0 0.00151819f
c1153 297 0 3.43077e-19
c1154 284 0 0.0037521f
c1155 283 0 0.00149735f
c1156 281 0 0.00229591f
c1157 278 0 0.00733055f
c1158 277 0 0.00158914f
c1159 274 0 1.69472e-19
c1160 272 0 2.42345e-19
c1161 270 0 0.161812f
c1162 269 0 0.00470601f
c1163 266 0 0.015889f
c1164 265 0 0.0106042f
c1165 264 0 0.0055099f
c1166 262 0 0.00379017f
c1167 260 0 0.516597f
c1168 259 0 0.00291233f
c1169 258 0 0.261571f
c1170 257 0 0.00287634f
c1171 252 0 0.0611357f
c1172 251 0 0.00212197f
c1173 244 0 3.0697e-19
c1174 243 0 0.00620771f
c1175 242 0 0.00182494f
c1176 241 0 0.104926f
c1177 240 0 0.00182494f
c1178 239 0 0.583856f
c1179 238 0 0.0022163f
c1180 232 0 5.16524e-19
c1181 231 0 0.0050845f
c1182 229 0 0.00115759f
c1183 227 0 8.66123e-19
c1184 221 0 9.16275e-19
c1185 220 0 0.0032606f
c1186 217 0 0.00176903f
c1187 216 0 0.00685186f
c1188 215 0 0.00503829f
c1189 214 0 0.0107993f
c1190 211 0 0.0315836f
c1191 210 0 2.40757e-19
c1192 209 0 0.0332827f
c1193 208 0 5.82299e-19
c1194 206 0 0.0411168f
c1195 204 0 0.0696215f
c1196 203 0 0.00692165f
c1197 200 0 0.00764455f
c1198 180 0 8.50995e-19
c1199 179 0 0.00426582f
c1200 178 0 0.00431499f
c1201 175 0 0.00527335f
c1202 171 0 1.98907e-19
c1203 170 0 0.110031f
c1204 169 0 0.00565597f
c1205 168 0 0.00238032f
c1206 161 0 0.0522248f
c1207 160 0 4.05356e-19
c1208 158 0 0.00253066f
c1209 157 0 0.00602292f
c1210 156 0 0.0600259f
c1211 154 0 0.0098141f
c1212 149 0 0.144866f
c1213 146 0 8.3253e-19
c1214 145 0 0.00159299f
c1215 143 0 0.00127963f
c1216 142 0 0.00688319f
c1217 141 0 3.85242e-19
c1218 140 0 9.73184e-19
c1219 139 0 4.30948e-19
c1220 138 0 0.00293421f
c1221 136 0 0.00937099f
c1222 133 0 0.00255882f
c1223 132 0 0.00757681f
c1224 131 0 0.00303045f
c1225 128 0 9.38292e-19
c1226 126 0 0.00145868f
c1227 122 0 0.00236465f
c1228 121 0 0.00385401f
c1229 116 0 7.91103e-19
c1230 108 0 1.71799e-19
c1231 107 0 8.81279e-19
c1232 102 0 0.00199255f
c1233 101 0 0.00891837f
c1234 100 0 4.81358e-19
c1235 99 0 8.18691e-19
c1236 98 0 0.00365172f
c1237 97 0 9.49294e-19
c1238 96 0 1.73031e-19
c1239 95 0 0.00988319f
c1240 93 0 0.00960752f
c1241 90 0 0.00788626f
c1242 86 0 6.30264e-20
c1243 85 0 0.00131182f
c1244 84 0 0.00231866f
c1245 83 0 0.00860105f
c1246 82 0 0.0113264f
c1247 81 0 0.00796948f
c1248 79 0 0.0115306f
c1249 78 0 0.0101506f
c1250 77 0 0.00651861f
c1251 76 0 0.00402759f
c1252 71 0 4.31461e-19
c1253 70 0 0.00339447f
c1254 69 0 4.64604e-19
c1255 68 0 0.0239642f
c1256 67 0 0.0113857f
c1257 66 0 0.0151104f
c1258 64 0 0.0127564f
c1259 63 0 0.00978564f
c1260 58 0 9.77381e-20
c1261 57 0 9.46158e-19
c1262 56 0 1.24409e-19
c1263 55 0 8.10384e-19
c1264 54 0 0.00911012f
c1265 53 0 0.00366044f
c1266 51 0 0.0100439f
c1267 50 0 0.0123781f
c1268 45 0 0.0134029f
c1269 44 0 0.014844f
c1270 39 0 0.0144542f
c1271 38 0 0.0196116f
c1272 32 0 0.0204447f
c1273 26 0 0.0144775f
c1274 21 0 0.014218f
r1275 400 401 0.0339834
r1276 399 404 0.184643
r1277 399 401 0.0339834
r1278 392 393 0.0455
r1279 391 392 0.139734
r1280 390 391 0.091
r1281 368 369 0.0161863
r1282 360 404 2
r1283 351 353 0.0583785
r1284 351 352 0.0583785
r1285 350 400 0.5925
r1286 350 351 2
r1287 346 347 0.0156115
r1288 345 346 0.0143644
r1289 340 385 2
r1290 335 336 0.0750905
r1291 335 380 2
r1292 332 373 2
r1293 324 350 0.78
r1294 324 325 2
r1295 307 308 35
r1296 305 308 5.5
r1297 299 325 0.149147
r1298 299 300 17.5
r1299 297 300 2.25
r1300 284 404 2
r1301 283 286 0.067441
r1302 283 284 2
r1303 278 385 2
r1304 277 280 0.067441
r1305 277 278 2
r1306 273 274 0.00856375
r1307 272 274 0.00856375
r1308 270 380 2
r1309 269 273 0.0359247
r1310 269 270 2
r1311 265 373 2
r1312 264 266 0.00065875
r1313 264 265 2
r1314 262 286 0.28028
r1315 259 260 24.479
r1316 258 259 0.150576
r1317 257 258 12.8456
r1318 256 281 0.0635168
r1319 256 257 0.0461032
r1320 255 262 0.0838093
r1321 255 260 0.0338796
r1322 254 281 0.0165069
r1323 254 280 0.09828
r1324 251 252 3.00755
r1325 250 275 0.0635168
r1326 250 251 0.0303606
r1327 249 281 0.0635168
r1328 249 252 0.0213649
r1329 248 275 0.0165069
r1330 248 272 0.09828
r1331 243 244 0.0179915
r1332 242 243 0.30758
r1333 241 242 0.109601
r1334 240 241 5.82056
r1335 239 240 0.110166
r1336 238 239 26.0415
r1337 237 275 0.0635168
r1338 237 244 0.019116
r1339 236 238 0.087265
r1340 235 266 0.0428735
r1341 235 236 0.64246
r1342 228 324 0.7995
r1343 227 229 0.067441
r1344 227 228 2
r1345 221 229 0.1092
r1346 220 221 0.1092
r1347 220 232 0.229233
r1348 217 232 0.0495833
r1349 216 231 0.0495833
r1350 216 217 0.121528
r1351 215 231 0.0651244
r1352 214 215 0.00477707
r1353 212 214 0.09919
r1354 210 211 0.88998
r1355 209 210 0.0112236
r1356 208 209 5.28342
r1357 207 208 1.02516
r1358 206 207 0.179746
r1359 205 206 3.15942
r1360 204 205 0.179746
r1361 203 204 3.59268
r1362 202 212 0.0838093
r1363 202 211 0.89089
r1364 200 390 0.00415339
r1365 199 200 2
r1366 197 203 0.0838093
r1367 197 199 0.36946
r1368 184 393 0.0455
r1369 180 181 0.00829839
r1370 179 369 0.0161863
r1371 178 181 1.83
r1372 178 179 2
r1373 175 364 0.0894968
r1374 174 180 0.0169867
r1375 174 175 2
r1376 170 171 0.0169867
r1377 169 356 0.0829123
r1378 168 171 0.18655
r1379 168 169 2
r1380 164 170 0.5925
r1381 164 307 2
r1382 160 161 0.909
r1383 159 160 0.00592742
r1384 158 159 0.00226556
r1385 157 347 0.0156115
r1386 156 161 0.9105
r1387 156 157 2
r1388 154 184 0.0838093
r1389 154 158 0.11466
r1390 149 342 0.0366906
r1391 145 368 0.0148976
r1392 144 145 0.102511
r1393 142 143 0.0163609
r1394 141 142 0.192
r1395 140 141 0.0218145
r1396 139 140 0.184751
r1397 138 139 0.0313584
r1398 135 138 0.0618667
r1399 135 136 30
r1400 133 144 0.0953265
r1401 133 143 0.0177243
r1402 132 364 0.0349097
r1403 131 132 0.215467
r1404 130 146 0.0235202
r1405 130 131 0.0401338
r1406 127 128 0.0359899
r1407 126 360 0.0331885
r1408 126 128 0.0359899
r1409 125 146 0.0664487
r1410 125 127 0.0380356
r1411 123 124 0.00245362
r1412 122 123 0.10189
r1413 121 122 0.105161
r1414 121 356 0.0976869
r1415 120 146 0.0664487
r1416 120 124 0.00368044
r1417 116 353 0.0387028
r1418 113 352 0.0410484
r1419 112 113 0.0410484
r1420 108 302 2.25
r1421 108 116 35
r1422 107 112 0.00938415
r1423 107 108 35
r1424 103 345 0.0922
r1425 101 102 0.0258564
r1426 100 101 0.212964
r1427 99 100 0.0109945
r1428 98 99 0.0236365
r1429 97 98 0.184751
r1430 96 97 0.0339774
r1431 95 96 0.00340536
r1432 92 95 0.0586667
r1433 92 93 30
r1434 90 103 0.0953265
r1435 90 102 0.0258564
r1436 85 86 0.00660854
r1437 84 85 0.15382
r1438 83 84 0.0459461
r1439 82 316 9.51044
r1440 82 315 9.51044
r1441 81 86 0.0885333
r1442 81 82 30
r1443 79 149 0.111589
r1444 79 83 0.205312
r1445 77 78 0.197362
r1446 76 340 0.0900845
r1447 76 78 0.19851
r1448 75 342 0.045716
r1449 75 77 0.116267
r1450 70 71 0.0082882
r1451 69 70 0.153615
r1452 68 69 0.00539997
r1453 67 313 9.51044
r1454 67 312 9.51044
r1455 66 71 0.0885333
r1456 66 67 30
r1457 64 68 0.280551
r1458 63 336 0.187243
r1459 62 63 0.187243
r1460 60 64 0.142961
r1461 60 62 0.119556
r1462 57 58 0.00677033
r1463 56 57 0.158187
r1464 55 56 0.00677033
r1465 53 58 0.0853333
r1466 53 54 30
r1467 51 332 0.121745
r1468 51 55 0.0277333
r1469 48 136 9.51044
r1470 48 50 59.6
r1471 45 136 9.51044
r1472 45 47 35
r1473 42 93 9.51044
r1474 42 44 59.6
r1475 39 93 9.51044
r1476 39 41 35
r1477 38 316 61
r1478 35 315 35
r1479 32 313 61
r1480 29 312 35
r1481 24 54 9.51044
r1482 24 26 57
r1483 21 54 9.51044
r1484 21 23 37.6
.ends

.subckt PM_MOD5_QB 13 15 18 19 21 24 25 27 30 31 34 36 37 38 39 40 43 45 46 47
+ 48 49 50 51 52 57 58 63 66 71 72 78 81 82 83 86 88 89 90 91 92 93 95 97 98 100
+ 101 102 105 112 113 114 115 119 122 123 124 125 132 134 135 136 137 138 139
+ 140 141 142 143 146 147 148 149 152 153 159 161 163 166 167 168 169 170 171
+ 172 175 176 178 180 181 182 183 184 191 192 193 201 203 206 209 211 219 220
+ 221 235 236 237 241 250 254 258 259 263 270 271 272 278 279 280 283 286
c1029 286 0 0.00411703f
c1030 283 0 0.00166535f
c1031 280 0 4.59427e-19
c1032 279 0 0.0075586f
c1033 272 0 9.77558e-19
c1034 271 0 0.0161134f
c1035 270 0 0.00169258f
c1036 263 0 0.00860817f
c1037 259 0 2.23212e-19
c1038 258 0 6.6903e-19
c1039 254 0 9.58777e-19
c1040 250 0 0.00443444f
c1041 237 0 4.00944e-19
c1042 236 0 7.70307e-19
c1043 235 0 0.00259908f
c1044 221 0 2.37911e-19
c1045 220 0 0.0088371f
c1046 219 0 0.00403577f
c1047 211 0 0.0162465f
c1048 203 0 0.00151819f
c1049 201 0 3.43077e-19
c1050 193 0 0.154351f
c1051 192 0 0.00390353f
c1052 191 0 0.00175676f
c1053 184 0 1.28678e-19
c1054 183 0 0.00225703f
c1055 182 0 0.00366619f
c1056 180 0 0.00335129f
c1057 178 0 0.137293f
c1058 176 0 0.00138162f
c1059 175 0 4.4922e-19
c1060 172 0 0.0673179f
c1061 171 0 0.00158622f
c1062 170 0 0.0638694f
c1063 169 0 0.0019527f
c1064 168 0 0.00384127f
c1065 167 0 0.00255396f
c1066 166 0 6.71118e-19
c1067 164 0 4.83276e-19
c1068 163 0 0.004268f
c1069 161 0 0.00115759f
c1070 159 0 8.7421e-19
c1071 153 0 9.15979e-19
c1072 152 0 0.00300326f
c1073 149 0 0.00174752f
c1074 148 0 0.00644433f
c1075 147 0 0.00477835f
c1076 146 0 0.0105944f
c1077 143 0 0.028961f
c1078 142 0 2.73036e-19
c1079 141 0 0.0292061f
c1080 140 0 4.26998e-19
c1081 138 0 0.0411168f
c1082 136 0 0.0747506f
c1083 135 0 0.00545438f
c1084 132 0 0.00764455f
c1085 124 0 8.71164e-19
c1086 123 0 0.00383567f
c1087 122 0 0.00398473f
c1088 119 0 0.00530243f
c1089 115 0 1.78018e-19
c1090 114 0 0.109321f
c1091 113 0 0.00564592f
c1092 112 0 0.00221214f
c1093 105 0 0.0540347f
c1094 104 0 4.79662e-19
c1095 102 0 0.00269821f
c1096 101 0 0.00488192f
c1097 100 0 0.0609952f
c1098 98 0 0.00959721f
c1099 97 0 8.3253e-19
c1100 95 0 0.00171917f
c1101 93 0 0.00124757f
c1102 92 0 0.00653544f
c1103 91 0 3.92249e-19
c1104 90 0 9.73184e-19
c1105 89 0 4.41021e-19
c1106 88 0 0.00283181f
c1107 86 0 0.00934237f
c1108 83 0 0.00207886f
c1109 82 0 0.00750582f
c1110 81 0 0.0027358f
c1111 78 0 9.07182e-19
c1112 76 0 0.0013982f
c1113 72 0 0.00203479f
c1114 71 0 0.0042495f
c1115 66 0 5.95746e-19
c1116 58 0 1.71799e-19
c1117 57 0 8.80869e-19
c1118 52 0 0.00185527f
c1119 51 0 0.0101281f
c1120 50 0 4.86828e-19
c1121 49 0 8.13016e-19
c1122 48 0 0.00407677f
c1123 47 0 9.53817e-19
c1124 46 0 1.65597e-19
c1125 45 0 0.0102853f
c1126 43 0 0.00956472f
c1127 40 0 0.00815235f
c1128 39 0 3.86581e-19
c1129 38 0 9.73184e-19
c1130 37 0 4.32873e-19
c1131 36 0 0.00291369f
c1132 34 0 0.00964992f
c1133 31 0 0.00247461f
c1134 30 0 0.0121839f
c1135 25 0 0.0134029f
c1136 24 0 0.0153271f
c1137 19 0 0.0139939f
c1138 18 0 0.0152651f
c1139 13 0 0.0139824f
r1140 279 280 0.0475768
r1141 278 283 0.156324
r1142 278 280 0.0487095
r1143 271 272 0.0455
r1144 270 271 0.139734
r1145 269 270 0.091
r1146 258 259 0.0161863
r1147 250 283 2
r1148 241 243 0.0583785
r1149 241 242 0.0583785
r1150 240 279 0.5925
r1151 240 241 2
r1152 236 237 0.0156115
r1153 235 236 0.0143644
r1154 228 240 0.78
r1155 228 229 2
r1156 220 221 0.016173
r1157 219 221 0.016173
r1158 219 263 2
r1159 211 212 35
r1160 209 212 5.5
r1161 203 229 0.149147
r1162 203 204 17.5
r1163 201 204 2.25
r1164 192 283 2
r1165 191 193 0.067441
r1166 191 192 2
r1167 189 286 0.0704862
r1168 189 263 2
r1169 188 189 2
r1170 185 193 0.41405
r1171 183 184 0.143329
r1172 182 183 0.414418
r1173 181 185 0.0838093
r1174 181 184 19.6943
r1175 179 180 0.49038
r1176 178 180 0.0279358
r1177 177 182 0.0838093
r1178 177 179 0.11102
r1179 175 178 0.0838093
r1180 175 176 5.82056
r1181 174 176 0.0838093
r1182 173 174 0.59696
r1183 171 172 12.0069
r1184 170 171 0.166906
r1185 169 170 4.82027
r1186 168 169 0.0328036
r1187 167 173 0.0838093
r1188 167 172 12.0069
r1189 166 188 0.0960236
r1190 165 168 0.0879665
r1191 165 166 0.20748
r1192 160 228 0.7995
r1193 159 161 0.067441
r1194 159 160 2
r1195 153 161 0.1092
r1196 152 153 0.1092
r1197 152 164 0.229233
r1198 149 164 0.0495833
r1199 148 163 0.0495833
r1200 148 149 0.121528
r1201 147 163 0.0651244
r1202 146 147 0.00477707
r1203 144 146 0.09919
r1204 142 143 0.88998
r1205 141 142 0.0112236
r1206 140 141 5.28342
r1207 139 140 1.02516
r1208 138 139 0.179746
r1209 137 138 3.15942
r1210 136 137 0.179746
r1211 135 136 3.59268
r1212 134 144 0.0838093
r1213 134 143 0.89089
r1214 132 269 0.00415339
r1215 131 132 2
r1216 129 135 0.0838093
r1217 129 131 0.36946
r1218 128 272 0.0455
r1219 124 125 0.00829839
r1220 123 259 0.0161863
r1221 122 125 1.83
r1222 122 123 2
r1223 119 254 0.0894968
r1224 118 124 0.0169867
r1225 118 119 2
r1226 114 115 0.0169867
r1227 113 246 0.0829123
r1228 112 115 0.18655
r1229 112 113 2
r1230 108 114 0.5925
r1231 108 211 2
r1232 104 105 0.909
r1233 103 104 0.00592742
r1234 102 103 0.00226556
r1235 101 237 0.0156115
r1236 100 105 0.9105
r1237 100 101 2
r1238 98 128 0.0838093
r1239 98 102 0.11466
r1240 96 220 0.0985956
r1241 95 258 0.0148976
r1242 94 95 0.102511
r1243 92 93 0.0163609
r1244 91 92 0.192
r1245 90 91 0.0218145
r1246 89 90 0.184751
r1247 88 89 0.0313584
r1248 85 88 0.0618667
r1249 85 86 30
r1250 83 94 0.0953265
r1251 83 93 0.0177243
r1252 82 254 0.0349097
r1253 81 82 0.215467
r1254 80 97 0.0235202
r1255 80 81 0.0401338
r1256 77 78 0.0359899
r1257 76 250 0.0331885
r1258 76 78 0.0359899
r1259 75 97 0.0664487
r1260 75 77 0.0380356
r1261 73 74 0.00245362
r1262 72 73 0.10189
r1263 71 72 0.105161
r1264 71 246 0.0976869
r1265 70 97 0.0664487
r1266 70 74 0.00368044
r1267 66 243 0.0387028
r1268 63 242 0.0410484
r1269 62 63 0.0410484
r1270 58 206 2.25
r1271 58 66 35
r1272 57 62 0.00938415
r1273 57 58 35
r1274 53 235 0.0922
r1275 51 52 0.0258564
r1276 50 51 0.212964
r1277 49 50 0.0109945
r1278 48 49 0.0236365
r1279 47 48 0.184751
r1280 46 47 0.0339774
r1281 45 46 0.00340536
r1282 42 45 0.0586667
r1283 42 43 30
r1284 40 53 0.0953265
r1285 40 52 0.0258564
r1286 38 39 0.0218145
r1287 37 38 0.184751
r1288 36 37 0.0313584
r1289 33 36 0.0618667
r1290 33 34 30
r1291 31 96 0.174631
r1292 31 39 0.190933
r1293 28 86 9.51044
r1294 28 30 59.6
r1295 25 86 9.51044
r1296 25 27 35
r1297 22 43 9.51044
r1298 22 24 59.6
r1299 19 43 9.51044
r1300 19 21 35
r1301 16 34 9.51044
r1302 16 18 59.6
r1303 13 34 9.51044
r1304 13 15 35
.ends

.subckt PM_MOD5_XI37.NET41 5 7 10 13 14 19 22 27 28 32 35 36 39 40 41 42 43 47
+ 53 54 55 56 58 66 68 69 70 71 75 82 84 87 90 92 112 115 116
c167 116 0 0.0066926f
c168 115 0 0.00467825f
c169 112 0 6.82013e-19
c170 92 0 0.0169143f
c171 84 0 0.00889685f
c172 82 0 3.68394e-19
c173 75 0 0.00878724f
c174 71 0 2.01872e-20
c175 70 0 0.125513f
c176 69 0 0.00547636f
c177 68 0 0.00243255f
c178 58 0 0.001063f
c179 57 0 2.1797e-19
c180 56 0 6.98865e-20
c181 55 0 0.126702f
c182 54 0 0.00559635f
c183 53 0 8.66257e-19
c184 47 0 0.00114842f
c185 44 0 1.77352e-19
c186 43 0 9.38854e-19
c187 42 0 1.54319e-19
c188 41 0 0.00946497f
c189 40 0 0.0113605f
c190 39 0 0.00367895f
c191 36 0 0.00464823f
c192 35 0 0.00634504f
c193 32 0 7.1449e-19
c194 28 0 0.00164035f
c195 27 0 0.00212507f
c196 22 0 0.00559572f
c197 14 0 4.34865e-19
c198 13 0 3.86109e-19
c199 10 0 0.018255f
c200 5 0 0.0190199f
r201 92 93 35
r202 90 93 5.5
r203 84 85 17.5
r204 82 85 2.25
r205 75 116 0.0924935
r206 75 115 0.0924935
r207 70 71 0.0056639
r208 69 112 0.0829123
r209 68 71 0.19656
r210 68 69 2
r211 66 107 0.0583785
r212 66 106 0.0583785
r213 65 70 0.5955
r214 65 66 2
r215 62 84 0.149147
r216 61 65 0.78
r217 61 62 2
r218 57 58 0.09282
r219 56 57 0.0103807
r220 55 56 0.00686
r221 54 110 0.0829123
r222 53 58 0.09373
r223 53 54 2
r224 49 55 0.5925
r225 49 92 2
r226 43 44 0.00406624
r227 42 43 0.153126
r228 41 42 0.00774783
r229 41 116 0.3136
r230 39 44 0.0906667
r231 39 40 30
r232 36 115 0.135467
r233 35 36 0.1344
r234 34 47 0.0235202
r235 34 35 0.0412304
r236 32 112 0.0236505
r237 31 32 0.0226222
r238 29 47 0.0664487
r239 29 31 0.229971
r240 27 28 0.0482584
r241 27 110 0.0514141
r242 26 47 0.0664487
r243 26 28 0.0294183
r244 22 107 0.0387028
r245 19 106 0.0410484
r246 18 19 0.0410484
r247 14 87 2.25
r248 14 22 35
r249 13 18 0.00927036
r250 13 14 35
r251 8 40 9.51044
r252 8 10 56.2
r253 5 40 9.51044
r254 5 7 39.8
.ends

.subckt PM_MOD5_CLK 37 39 42 43 45 48 49 51 54 55 57 60 61 63 66 67 69 72 73 75
+ 78 79 81 84 85 87 90 95 96 97 99 100 101 102 103 104 105 107 108 112 113 114
+ 116 117 118 119 120 121 122 124 125 129 130 131 132 133 141 142 143 145 146
+ 147 148 149 150 151 153 154 158 159 160 162 163 164 165 166 167 168 170 171
+ 175 176 177 178 179 187 188 189 191 192 193 194 195 196 197 199 200 204 205
+ 206 208 209 210 211 212 213 214 216 217 221 222 223 224 225 231 232 233 236
+ 239 240 241 244 247 248 249 252 253 254 255 258 265 269 270 274 276 280 282
+ 283 284 285 286 287 288 290 291 294 295 296 298 299 300 301 306 308 312 313
+ 314 351 354 363 366 375 378 388 391 393 394 395 396 397 398 399 400 401 402
+ 403 404 405 406 407 408 409 410 411 412 413 414 415 416 420 423 425 426 427
+ 428 429 430 431 432 433 434 435 436 437 438 439 440 441 442 443 444 445 446
+ 447 448 449 450 454 457 459 460 461 462 463 464 465 466 467 469 470 471 472
+ 473 474 475 476 477 478 479 480 481 482 487 488
c1361 488 0 0.00117876f
c1362 487 0 0.00356717f
c1363 482 0 0.00146355f
c1364 481 0 0.00394588f
c1365 480 0 4.91351e-20
c1366 479 0 2.20196e-19
c1367 478 0 0.00377123f
c1368 477 0 0.00145242f
c1369 476 0 0.0042589f
c1370 475 0 7.61191e-20
c1371 474 0 6.4444e-20
c1372 473 0 0.0100956f
c1373 472 0 0.107709f
c1374 471 0 0.00360617f
c1375 470 0 9.58361e-20
c1376 469 0 0.117558f
c1377 468 0 0.00184976f
c1378 467 0 0.0016582f
c1379 466 0 0.00123394f
c1380 465 0 0.00200699f
c1381 464 0 1.53984e-19
c1382 463 0 0.12353f
c1383 462 0 0.00103054f
c1384 461 0 7.43634e-19
c1385 460 0 0.0262406f
c1386 459 0 0.10773f
c1387 457 0 0.00577364f
c1388 456 0 8.52471e-19
c1389 455 0 3.65833e-19
c1390 454 0 0.00434842f
c1391 450 0 7.86585e-19
c1392 449 0 0.00145556f
c1393 448 0 0.00407354f
c1394 447 0 4.26067e-20
c1395 446 0 4.59494e-20
c1396 445 0 0.00376386f
c1397 444 0 0.00146078f
c1398 443 0 0.00407412f
c1399 442 0 5.40062e-20
c1400 441 0 8.30931e-20
c1401 440 0 0.0102211f
c1402 439 0 0.1177f
c1403 438 0 0.00382241f
c1404 437 0 0.00178372f
c1405 436 0 9.77928e-20
c1406 435 0 0.118367f
c1407 434 0 0.0018045f
c1408 433 0 0.00175918f
c1409 432 0 0.00123176f
c1410 431 0 0.00210825f
c1411 430 0 4.49609e-19
c1412 429 0 0.12165f
c1413 428 0 0.00247926f
c1414 427 0 7.49685e-19
c1415 426 0 0.0268873f
c1416 425 0 0.110044f
c1417 423 0 0.00579954f
c1418 422 0 8.56301e-19
c1419 421 0 3.65904e-19
c1420 420 0 0.00422083f
c1421 416 0 0.00454031f
c1422 415 0 0.00406429f
c1423 414 0 1.66933e-19
c1424 413 0 2.63014e-19
c1425 412 0 0.0072417f
c1426 411 0 0.00453365f
c1427 410 0 0.00408413f
c1428 409 0 1.53221e-19
c1429 408 0 1.74916e-19
c1430 407 0 0.0164025f
c1431 406 0 0.116465f
c1432 405 0 0.00898997f
c1433 404 0 9.77928e-20
c1434 403 0 0.117489f
c1435 402 0 0.00198091f
c1436 401 0 0.00274152f
c1437 400 0 0.00123394f
c1438 399 0 0.00313487f
c1439 398 0 2.64456e-19
c1440 397 0 0.122205f
c1441 396 0 0.00147512f
c1442 395 0 0.00202339f
c1443 394 0 0.0300884f
c1444 393 0 0.110168f
c1445 391 0 0.00579954f
c1446 390 0 8.56301e-19
c1447 389 0 3.57578e-19
c1448 388 0 0.00450568f
c1449 378 0 0.00563842f
c1450 375 0 0.0136344f
c1451 366 0 0.0055963f
c1452 363 0 0.013093f
c1453 354 0 0.00679277f
c1454 351 0 0.0135635f
c1455 314 0 0.0360005f
c1456 313 0 0.00113157f
c1457 312 0 0.00328787f
c1458 308 0 0.00512734f
c1459 306 0 0.00352236f
c1460 300 0 0.043753f
c1461 299 0 5.85362e-19
c1462 298 0 0.0199348f
c1463 296 0 0.0550322f
c1464 295 0 5.1497e-19
c1465 294 0 0.00700933f
c1466 291 0 0.00140196f
c1467 290 0 0.00220068f
c1468 288 0 0.0216123f
c1469 287 0 3.96225e-19
c1470 286 0 0.131004f
c1471 284 0 0.00279508f
c1472 283 0 1.8255e-19
c1473 282 0 9.80544e-19
c1474 280 0 0.00433735f
c1475 276 0 0.00506451f
c1476 274 0 0.0296449f
c1477 270 0 0.00169644f
c1478 269 0 0.0154105f
c1479 265 0 0.0348432f
c1480 255 0 0.00426741f
c1481 254 0 0.00423191f
c1482 253 0 0.00531601f
c1483 252 0 0.0108742f
c1484 249 0 0.203885f
c1485 248 0 0.00125337f
c1486 247 0 0.00309688f
c1487 244 0 0.0108742f
c1488 241 0 0.20444f
c1489 240 0 0.0010631f
c1490 239 0 0.00230253f
c1491 236 0 0.0108742f
c1492 233 0 0.20473f
c1493 232 0 0.00111997f
c1494 231 0 0.00458448f
c1495 226 0 2.16123e-19
c1496 225 0 0.00137408f
c1497 224 0 4.56829e-19
c1498 223 0 0.0180911f
c1499 222 0 0.0109903f
c1500 221 0 0.00856789f
c1501 217 0 0.00237037f
c1502 216 0 0.00220776f
c1503 215 0 4.80733e-19
c1504 214 0 0.00348421f
c1505 213 0 5.07404e-19
c1506 212 0 0.00236011f
c1507 211 0 0.00723216f
c1508 210 0 0.00690965f
c1509 209 0 0.00932314f
c1510 208 0 0.0080952f
c1511 206 0 0.00765547f
c1512 205 0 0.00366198f
c1513 204 0 0.0105796f
c1514 200 0 0.00238545f
c1515 199 0 0.00223879f
c1516 198 0 5.09229e-19
c1517 197 0 0.00398322f
c1518 196 0 3.73636e-19
c1519 195 0 0.00233239f
c1520 194 0 0.00691775f
c1521 193 0 0.00708735f
c1522 192 0 0.0092432f
c1523 191 0 0.00843242f
c1524 189 0 0.00723432f
c1525 188 0 0.00453554f
c1526 187 0 0.0118577f
c1527 180 0 2.04312e-19
c1528 179 0 0.00137408f
c1529 178 0 4.56829e-19
c1530 177 0 0.0183377f
c1531 176 0 0.0109903f
c1532 175 0 0.00865965f
c1533 171 0 0.00236081f
c1534 170 0 0.00218969f
c1535 169 0 4.97326e-19
c1536 168 0 0.00387946f
c1537 167 0 5.23997e-19
c1538 166 0 0.0023436f
c1539 165 0 0.00777991f
c1540 164 0 0.00720678f
c1541 163 0 0.00920743f
c1542 162 0 0.00826705f
c1543 160 0 0.00884896f
c1544 159 0 0.00319455f
c1545 158 0 0.0104316f
c1546 154 0 0.00238451f
c1547 153 0 0.00220628f
c1548 152 0 5.09229e-19
c1549 151 0 0.00398322f
c1550 150 0 3.73636e-19
c1551 149 0 0.00244693f
c1552 148 0 0.00690708f
c1553 147 0 0.00700926f
c1554 146 0 0.0092514f
c1555 145 0 0.00848356f
c1556 143 0 0.00723432f
c1557 142 0 0.0043247f
c1558 141 0 0.0117976f
c1559 134 0 2.04312e-19
c1560 133 0 0.00137408f
c1561 132 0 4.56829e-19
c1562 131 0 0.0180911f
c1563 130 0 0.0109903f
c1564 129 0 0.00855031f
c1565 125 0 0.0023415f
c1566 124 0 0.00215683f
c1567 123 0 4.6883e-19
c1568 122 0 0.00338045f
c1569 121 0 4.95501e-19
c1570 120 0 0.00231743f
c1571 119 0 0.00714234f
c1572 118 0 0.00690323f
c1573 117 0 0.0093469f
c1574 116 0 0.0079999f
c1575 114 0 0.00762335f
c1576 113 0 0.00340512f
c1577 112 0 0.010629f
c1578 108 0 0.00235155f
c1579 107 0 0.00218645f
c1580 106 0 4.97326e-19
c1581 105 0 0.00387946f
c1582 104 0 3.61733e-19
c1583 103 0 0.00240113f
c1584 102 0 0.00681859f
c1585 101 0 0.00707486f
c1586 100 0 0.00922278f
c1587 99 0 0.00827156f
c1588 97 0 0.00721972f
c1589 96 0 0.00408015f
c1590 95 0 0.0122616f
c1591 90 0 0.0185375f
c1592 85 0 0.0196573f
c1593 84 0 0.0143091f
c1594 79 0 0.0153462f
c1595 78 0 0.0141896f
c1596 73 0 0.0144669f
c1597 72 0 0.0186892f
c1598 67 0 0.0193279f
c1599 66 0 0.0138924f
c1600 61 0 0.0147737f
c1601 60 0 0.0137174f
c1602 55 0 0.0144074f
c1603 54 0 0.0185375f
c1604 49 0 0.0190487f
c1605 48 0 0.0143091f
c1606 43 0 0.0151078f
c1607 42 0 0.0141887f
c1608 37 0 0.014661f
r1609 488 489 0.00204882
r1610 487 488 0.0498707
r1611 481 482 0.327373
r1612 480 481 1.95
r1613 479 480 0.0124606
r1614 478 479 0.00660593
r1615 477 478 0.29302
r1616 476 477 0.327373
r1617 475 476 1.95
r1618 474 475 0.0124606
r1619 473 474 0.00660593
r1620 472 473 0.53599
r1621 471 472 1.95
r1622 470 471 0.45773
r1623 469 470 0.02039
r1624 467 468 0.02039
r1625 466 467 0.11466
r1626 465 466 0.112342
r1627 464 465 0.11921
r1628 463 464 0.00660593
r1629 462 463 1.95
r1630 461 462 0.0877644
r1631 460 461 0.11011
r1632 459 460 0.327373
r1633 456 457 0.1035
r1634 455 456 0.0124606
r1635 454 455 0.00660593
r1636 449 450 0.06188
r1637 448 449 0.327373
r1638 447 448 1.95
r1639 446 447 0.0124606
r1640 445 446 0.00660593
r1641 444 445 0.29302
r1642 443 444 0.327373
r1643 442 443 1.95
r1644 441 442 0.0124606
r1645 440 441 0.00660593
r1646 439 440 0.53599
r1647 438 439 1.95
r1648 437 438 0.275561
r1649 436 437 0.19201
r1650 435 436 0.02039
r1651 433 434 0.02039
r1652 432 433 0.11466
r1653 431 432 0.112342
r1654 430 431 0.11921
r1655 429 430 0.00660593
r1656 428 429 1.95
r1657 427 428 0.0877644
r1658 426 427 0.11011
r1659 425 426 0.327373
r1660 422 423 0.1035
r1661 421 422 0.0124606
r1662 420 421 0.00660593
r1663 415 416 0.327373
r1664 414 415 1.95
r1665 413 414 0.0124606
r1666 412 413 0.00660593
r1667 411 412 0.29302
r1668 410 411 0.327373
r1669 409 410 1.95
r1670 408 409 0.0124606
r1671 407 408 0.00660593
r1672 406 407 0.53599
r1673 405 406 1.95
r1674 404 405 0.45773
r1675 403 404 0.02039
r1676 401 402 0.02039
r1677 400 401 0.11466
r1678 399 400 0.112342
r1679 398 399 0.11921
r1680 397 398 0.00660593
r1681 396 397 1.95
r1682 395 396 0.0877644
r1683 394 395 0.11011
r1684 393 394 0.327373
r1685 390 391 0.1035
r1686 389 390 0.0124606
r1687 388 389 0.00660593
r1688 385 388 0.03913
r1689 378 380 0.0900996
r1690 377 469 1.7295
r1691 377 468 0.1935
r1692 377 378 2
r1693 374 459 1.7415
r1694 374 457 0.105
r1695 374 375 2
r1696 366 368 0.0900996
r1697 365 435 1.7295
r1698 365 434 0.1935
r1699 365 366 2
r1700 362 425 1.7415
r1701 362 423 0.105
r1702 362 363 2
r1703 354 356 0.0900996
r1704 353 403 1.7295
r1705 353 402 0.1935
r1706 353 354 2
r1707 350 393 1.7415
r1708 350 391 0.105
r1709 350 351 2
r1710 317 318 2
r1711 314 317 0.0830025
r1712 310 311 2
r1713 308 310 0.127397
r1714 306 489 0.00273176
r1715 306 385 2
r1716 305 306 2
r1717 300 301 0.148729
r1718 299 300 26.6553
r1719 298 299 0.149277
r1720 298 313 1.18376
r1721 296 314 0.0428735
r1722 296 301 7.57717
r1723 295 312 0.0740313
r1724 294 313 0.0740313
r1725 294 295 0.373337
r1726 293 308 0.0363081
r1727 293 312 0.404164
r1728 290 291 0.177509
r1729 289 290 0.270876
r1730 288 308 0.0363081
r1731 288 291 2.65179
r1732 286 287 0.185546
r1733 285 305 0.0720874
r1734 285 286 23.9801
r1735 284 289 0.156954
r1736 284 287 0.10195
r1737 282 283 0.0116473
r1738 281 454 0.03913
r1739 280 283 0.0116473
r1740 280 281 2
r1741 278 318 0.114
r1742 277 420 0.03913
r1743 276 277 2
r1744 273 311 0.11466
r1745 273 274 0.0165069
r1746 270 278 0.0838093
r1747 269 282 0.0303025
r1748 269 270 0.28847
r1749 266 274 0.0635168
r1750 265 276 0.258824
r1751 265 266 0.28483
r1752 258 487 0.0585
r1753 255 482 0.12467
r1754 254 450 0.06279
r1755 253 416 0.12467
r1756 252 382 0.0460417
r1757 251 252 2
r1758 249 251 0.6345
r1759 247 248 0.113053
r1760 246 249 0.0838596
r1761 246 248 0.091
r1762 245 255 0.0838093
r1763 245 247 0.091
r1764 244 370 0.0460417
r1765 243 244 2
r1766 241 243 0.6345
r1767 239 240 0.113053
r1768 238 241 0.0838596
r1769 238 240 0.091
r1770 237 254 0.0838093
r1771 237 239 0.091
r1772 236 358 0.0460417
r1773 235 236 2
r1774 233 235 0.6345
r1775 231 232 0.113053
r1776 230 233 0.0838596
r1777 230 232 0.091
r1778 229 253 0.0838093
r1779 229 231 0.091
r1780 225 226 0.00406624
r1781 224 225 0.153126
r1782 223 224 0.00774783
r1783 221 226 0.0906667
r1784 221 222 30
r1785 219 382 0.04859
r1786 219 223 0.3136
r1787 216 217 0.0288
r1788 215 216 0.0287416
r1789 214 215 0.00677033
r1790 213 214 0.158187
r1791 212 213 0.00677033
r1792 211 212 0.0287416
r1793 210 211 0.0885333
r1794 208 217 0.0298667
r1795 208 209 30
r1796 206 210 0.0471665
r1797 204 205 0.0704
r1798 204 380 0.234079
r1799 203 206 0.0949839
r1800 203 205 0.0714667
r1801 199 200 0.0288
r1802 198 199 0.0287416
r1803 197 198 0.00677033
r1804 196 197 0.158187
r1805 195 196 0.00677033
r1806 194 195 0.0287416
r1807 193 194 0.0778667
r1808 191 200 0.0298667
r1809 191 192 30
r1810 189 193 0.0387548
r1811 187 188 0.0704
r1812 186 189 0.0949839
r1813 186 188 0.0714667
r1814 185 375 0.105103
r1815 185 187 0.220056
r1816 179 180 0.00406624
r1817 178 179 0.153126
r1818 177 178 0.00774783
r1819 175 180 0.0906667
r1820 175 176 30
r1821 173 370 0.04859
r1822 173 177 0.3136
r1823 170 171 0.0288
r1824 169 170 0.0287416
r1825 168 169 0.00677033
r1826 167 168 0.158187
r1827 166 167 0.00677033
r1828 165 166 0.0287416
r1829 164 165 0.0885333
r1830 162 171 0.0298667
r1831 162 163 30
r1832 160 164 0.0471665
r1833 158 159 0.0704
r1834 158 368 0.234079
r1835 157 160 0.0949839
r1836 157 159 0.0714667
r1837 153 154 0.0288
r1838 152 153 0.0287416
r1839 151 152 0.00677033
r1840 150 151 0.158187
r1841 149 150 0.00677033
r1842 148 149 0.0287416
r1843 147 148 0.0778667
r1844 145 154 0.0298667
r1845 145 146 30
r1846 143 147 0.0387548
r1847 141 142 0.0704
r1848 140 143 0.0949839
r1849 140 142 0.0714667
r1850 139 363 0.105103
r1851 139 141 0.220056
r1852 133 134 0.00406624
r1853 132 133 0.153126
r1854 131 132 0.00774783
r1855 129 134 0.0906667
r1856 129 130 30
r1857 127 358 0.04859
r1858 127 131 0.3136
r1859 124 125 0.0288
r1860 123 124 0.0287416
r1861 122 123 0.00677033
r1862 121 122 0.158187
r1863 120 121 0.00677033
r1864 119 120 0.0287416
r1865 118 119 0.0885333
r1866 116 125 0.0298667
r1867 116 117 30
r1868 114 118 0.0471665
r1869 112 113 0.0704
r1870 112 356 0.234079
r1871 111 114 0.0949839
r1872 111 113 0.0714667
r1873 107 108 0.0288
r1874 106 107 0.0287416
r1875 105 106 0.00677033
r1876 104 105 0.158187
r1877 103 104 0.00677033
r1878 102 103 0.0287416
r1879 101 102 0.0778667
r1880 99 108 0.0298667